packages/py-dss-toolkit/py_dss_toolkit-0.4.0.tar.gz/py_dss_toolkit-0.4.0/examples/feeders/1_3PAS_1/CargasBT_SA11_202312598_1_3PAS_1_------1-----.dss
New "Load.BT_2806086_M1" bus1="UC2806086.1.4" phases=1 conn=Wye model=2 kv=0.220000000 kw = 0.0144485 pf=0.92 status=variable vmaxpu=1.5 vminpu=0.5 daily="RU2_SA"  
New "Load.BT_2806086_M2" bus1="UC2806086.1.4" phases=1 conn=Wye model=3 kv=0.220000000 kw = 0.0144485 pf=0.92 status=variable vmaxpu=1.5 vminpu=0.5 daily="RU2_SA" 
New "Load.BT_2805327_M1" bus1="UC2805327.1.4" phases=1 conn=Wye model=2 kv=0.220000000 kw = 0.262071 pf=0.92 status=variable vmaxpu=1.5 vminpu=0.5 daily="RU5_SA"  
New "Load.BT_2805327_M2" bus1="UC2805327.1.4" phases=1 conn=Wye model=3 kv=0.220000000 kw = 0.262071 pf=0.92 status=variable vmaxpu=1.5 vminpu=0.5 daily="RU5_SA" 
New "Load.BT_2830102_M1" bus1="UC2830102.1.4" phases=1 conn=Wye model=2 kv=0.220000000 kw = 0.2536775 pf=0.92 status=variable vmaxpu=1.5 vminpu=0.5 daily="RU4_SA"  
New "Load.BT_2830102_M2" bus1="UC2830102.1.4" phases=1 conn=Wye model=3 kv=0.220000000 kw = 0.2536775 pf=0.92 status=variable vmaxpu=1.5 vminpu=0.5 daily="RU4_SA" 
New "Load.BT_2836303_M1" bus1="UC2836303.1.4" phases=1 conn=Wye model=2 kv=0.220000000 kw = 0.3514395 pf=0.92 status=variable vmaxpu=1.5 vminpu=0.5 daily="RU6_SA"  
New "Load.BT_2836303_M2" bus1="UC2836303.1.4" phases=1 conn=Wye model=3 kv=0.220000000 kw = 0.3514395 pf=0.92 status=variable vmaxpu=1.5 vminpu=0.5 daily="RU6_SA" 
New "Load.BT_2834139_M1" bus1="UC2834139.1.2.4" phases=1 conn=Delta model=2 kv=0.440000000 kw = 0.020796 pf=0.92 status=variable vmaxpu=1.5 vminpu=0.5 daily="RU1_SA"  
New "Load.BT_2834139_M2" bus1="UC2834139.1.2.4" phases=1 conn=Delta model=3 kv=0.440000000 kw = 0.020796 pf=0.92 status=variable vmaxpu=1.5 vminpu=0.5 daily="RU1_SA" 
New "Load.BT_2805332_M1" bus1="UC2805332.1.2.4" phases=1 conn=Delta model=2 kv=0.440000000 kw = 0.362731 pf=0.92 status=variable vmaxpu=1.5 vminpu=0.5 daily="RU6_SA"  
New "Load.BT_2805332_M2" bus1="UC2805332.1.2.4" phases=1 conn=Delta model=3 kv=0.440000000 kw = 0.362731 pf=0.92 status=variable vmaxpu=1.5 vminpu=0.5 daily="RU6_SA" 
New "Load.BT_2807373_M1" bus1="UC2807373.2.4" phases=1 conn=Wye model=2 kv=0.220000000 kw = 0.2597465 pf=0.92 status=variable vmaxpu=1.5 vminpu=0.5 daily="RU4_SA"  
New "Load.BT_2807373_M2" bus1="UC2807373.2.4" phases=1 conn=Wye model=3 kv=0.220000000 kw = 0.2597465 pf=0.92 status=variable vmaxpu=1.5 vminpu=0.5 daily="RU4_SA" 
New "Load.BT_2818343_M1" bus1="UC2818343.2.4" phases=1 conn=Wye model=2 kv=0.219393102 kw = 0.114452 pf=0.92 status=variable vmaxpu=1.5 vminpu=0.5 daily="RU7_SA"  
New "Load.BT_2818343_M2" bus1="UC2818343.2.4" phases=1 conn=Wye model=3 kv=0.219393102 kw = 0.114452 pf=0.92 status=variable vmaxpu=1.5 vminpu=0.5 daily="RU7_SA" 
New "Load.BT_2805262_M1" bus1="UC2805262.1.4" phases=1 conn=Wye model=2 kv=0.220000000 kw = 0.02875 pf=0.92 status=variable vmaxpu=1.5 vminpu=0.5 daily="RU5_SA"  
New "Load.BT_2805262_M2" bus1="UC2805262.1.4" phases=1 conn=Wye model=3 kv=0.220000000 kw = 0.02875 pf=0.92 status=variable vmaxpu=1.5 vminpu=0.5 daily="RU5_SA" 
New "Load.BT_2826215_M1" bus1="UC2826215.1.4" phases=1 conn=Wye model=2 kv=0.219393102 kw = 0.3059615 pf=0.92 status=variable vmaxpu=1.5 vminpu=0.5 daily="RU7_SA"  
New "Load.BT_2826215_M2" bus1="UC2826215.1.4" phases=1 conn=Wye model=3 kv=0.219393102 kw = 0.3059615 pf=0.92 status=variable vmaxpu=1.5 vminpu=0.5 daily="RU7_SA" 
New "Load.BT_2805278_M1" bus1="UC2805278.2.4" phases=1 conn=Wye model=2 kv=0.220000000 kw = 0.0159495 pf=0.92 status=variable vmaxpu=1.5 vminpu=0.5 daily="RU1_SA"  
New "Load.BT_2805278_M2" bus1="UC2805278.2.4" phases=1 conn=Wye model=3 kv=0.220000000 kw = 0.0159495 pf=0.92 status=variable vmaxpu=1.5 vminpu=0.5 daily="RU1_SA" 
New "Load.BT_2817035_M1" bus1="UC2817035.2.4" phases=1 conn=Wye model=2 kv=0.220000000 kw = 0.010877 pf=0.92 status=variable vmaxpu=1.5 vminpu=0.5 daily="RU1_SA"  
New "Load.BT_2817035_M2" bus1="UC2817035.2.4" phases=1 conn=Wye model=3 kv=0.220000000 kw = 0.010877 pf=0.92 status=variable vmaxpu=1.5 vminpu=0.5 daily="RU1_SA" 
New "Load.BT_2818350_M1" bus1="UC2818350.1.2.3.4" phases=3 conn=Delta model=2 kv=0.380000000 kw = 4.5150905 pf=0.92 status=variable vmaxpu=1.5 vminpu=0.5 daily="RE8_SA"  
New "Load.BT_2818350_M2" bus1="UC2818350.1.2.3.4" phases=3 conn=Delta model=3 kv=0.380000000 kw = 4.5150905 pf=0.92 status=variable vmaxpu=1.5 vminpu=0.5 daily="RE8_SA" 
New "Load.BT_2805378_M1" bus1="UC2805378.1.4" phases=1 conn=Wye model=2 kv=0.220000000 kw = 0.33168 pf=0.92 status=variable vmaxpu=1.5 vminpu=0.5 daily="RU6_SA"  
New "Load.BT_2805378_M2" bus1="UC2805378.1.4" phases=1 conn=Wye model=3 kv=0.220000000 kw = 0.33168 pf=0.92 status=variable vmaxpu=1.5 vminpu=0.5 daily="RU6_SA" 
New "Load.BT_2805372_M1" bus1="UC2805372.2.4" phases=1 conn=Wye model=2 kv=0.220000000 kw = 0.1764255 pf=0.92 status=variable vmaxpu=1.5 vminpu=0.5 daily="RU6_SA"  
New "Load.BT_2805372_M2" bus1="UC2805372.2.4" phases=1 conn=Wye model=3 kv=0.220000000 kw = 0.1764255 pf=0.92 status=variable vmaxpu=1.5 vminpu=0.5 daily="RU6_SA" 
New "Load.BT_2805353_M1" bus1="UC2805353.1.4" phases=1 conn=Wye model=2 kv=0.220000000 kw = 0.139382 pf=0.92 status=variable vmaxpu=1.5 vminpu=0.5 daily="RU7_SA"  
New "Load.BT_2805353_M2" bus1="UC2805353.1.4" phases=1 conn=Wye model=3 kv=0.220000000 kw = 0.139382 pf=0.92 status=variable vmaxpu=1.5 vminpu=0.5 daily="RU7_SA" 
New "Load.BT_2805390_M1" bus1="UC2805390.1.2.4" phases=1 conn=Delta model=2 kv=0.440000000 kw = 0.3542625 pf=0.92 status=variable vmaxpu=1.5 vminpu=0.5 daily="RU6_SA"  
New "Load.BT_2805390_M2" bus1="UC2805390.1.2.4" phases=1 conn=Delta model=3 kv=0.440000000 kw = 0.3542625 pf=0.92 status=variable vmaxpu=1.5 vminpu=0.5 daily="RU6_SA" 
New "Load.BT_2806072_M1" bus1="UC2806072.1.4" phases=1 conn=Wye model=2 kv=0.220000000 kw = 0.092886 pf=0.92 status=variable vmaxpu=1.5 vminpu=0.5 daily="RU5_SA"  
New "Load.BT_2806072_M2" bus1="UC2806072.1.4" phases=1 conn=Wye model=3 kv=0.220000000 kw = 0.092886 pf=0.92 status=variable vmaxpu=1.5 vminpu=0.5 daily="RU5_SA" 
New "Load.BT_2819400_M1" bus1="UC2819400.2.4" phases=1 conn=Wye model=2 kv=0.220000000 kw = 0.215628 pf=0.92 status=variable vmaxpu=1.5 vminpu=0.5 daily="RU5_SA"  
New "Load.BT_2819400_M2" bus1="UC2819400.2.4" phases=1 conn=Wye model=3 kv=0.220000000 kw = 0.215628 pf=0.92 status=variable vmaxpu=1.5 vminpu=0.5 daily="RU5_SA" 
New "Load.BT_2805341_M1" bus1="UC2805341.1.2.4" phases=1 conn=Delta model=2 kv=0.440000000 kw = 0.3317355 pf=0.92 status=variable vmaxpu=1.5 vminpu=0.5 daily="RU5_SA"  
New "Load.BT_2805341_M2" bus1="UC2805341.1.2.4" phases=1 conn=Delta model=3 kv=0.440000000 kw = 0.3317355 pf=0.92 status=variable vmaxpu=1.5 vminpu=0.5 daily="RU5_SA" 
New "Load.BT_2805345_M1" bus1="UC2805345.1.4" phases=1 conn=Wye model=2 kv=0.220000000 kw = 0.3799095 pf=0.92 status=variable vmaxpu=1.5 vminpu=0.5 daily="RU4_SA"  
New "Load.BT_2805345_M2" bus1="UC2805345.1.4" phases=1 conn=Wye model=3 kv=0.220000000 kw = 0.3799095 pf=0.92 status=variable vmaxpu=1.5 vminpu=0.5 daily="RU4_SA" 
New "Load.BT_2805244_M1" bus1="UC2805244.1.2.4" phases=1 conn=Delta model=2 kv=0.440000000 kw = 0.0594585 pf=0.92 status=variable vmaxpu=1.5 vminpu=0.5 daily="RU1_SA"  
New "Load.BT_2805244_M2" bus1="UC2805244.1.2.4" phases=1 conn=Delta model=3 kv=0.440000000 kw = 0.0594585 pf=0.92 status=variable vmaxpu=1.5 vminpu=0.5 daily="RU1_SA" 
New "Load.BT_2805410_M1" bus1="UC2805410.2.4" phases=1 conn=Wye model=2 kv=0.220000000 kw = 0.007552 pf=0.92 status=variable vmaxpu=1.5 vminpu=0.5 daily="RU1_SA"  
New "Load.BT_2805410_M2" bus1="UC2805410.2.4" phases=1 conn=Wye model=3 kv=0.220000000 kw = 0.007552 pf=0.92 status=variable vmaxpu=1.5 vminpu=0.5 daily="RU1_SA" 
New "Load.BT_2805776_M1" bus1="UC2805776.2.4" phases=1 conn=Wye model=2 kv=0.220000000 kw = 0.014839 pf=0.92 status=variable vmaxpu=1.5 vminpu=0.5 daily="RU2_SA"  
New "Load.BT_2805776_M2" bus1="UC2805776.2.4" phases=1 conn=Wye model=3 kv=0.220000000 kw = 0.014839 pf=0.92 status=variable vmaxpu=1.5 vminpu=0.5 daily="RU2_SA" 
New "Load.BT_2805421_M1" bus1="UC2805421.1.4" phases=1 conn=Wye model=2 kv=0.219393102 kw = 0.557316 pf=0.92 status=variable vmaxpu=1.5 vminpu=0.5 daily="RU5_SA"  
New "Load.BT_2805421_M2" bus1="UC2805421.1.4" phases=1 conn=Wye model=3 kv=0.219393102 kw = 0.557316 pf=0.92 status=variable vmaxpu=1.5 vminpu=0.5 daily="RU5_SA" 
New "Load.BT_2805426_M1" bus1="UC2805426.1.4" phases=1 conn=Wye model=2 kv=0.219393102 kw = 0.15638 pf=0.92 status=variable vmaxpu=1.5 vminpu=0.5 daily="RU7_SA"  
New "Load.BT_2805426_M2" bus1="UC2805426.1.4" phases=1 conn=Wye model=3 kv=0.219393102 kw = 0.15638 pf=0.92 status=variable vmaxpu=1.5 vminpu=0.5 daily="RU7_SA" 
New "Load.BT_2805220_M1" bus1="UC2805220.2.4" phases=1 conn=Wye model=2 kv=0.220000000 kw = 0.2377435 pf=0.92 status=variable vmaxpu=1.5 vminpu=0.5 daily="RU5_SA"  
New "Load.BT_2805220_M2" bus1="UC2805220.2.4" phases=1 conn=Wye model=3 kv=0.220000000 kw = 0.2377435 pf=0.92 status=variable vmaxpu=1.5 vminpu=0.5 daily="RU5_SA" 
New "Load.BT_2805266_M1" bus1="UC2805266.1.2.3.4" phases=3 conn=Delta model=2 kv=0.380000000 kw = 0.5539985 pf=0.92 status=variable vmaxpu=1.5 vminpu=0.5 daily="RU5_SA"  
New "Load.BT_2805266_M2" bus1="UC2805266.1.2.3.4" phases=3 conn=Delta model=3 kv=0.380000000 kw = 0.5539985 pf=0.92 status=variable vmaxpu=1.5 vminpu=0.5 daily="RU5_SA" 
New "Load.BT_2817049_M1" bus1="UC2817049.3.4" phases=1 conn=Wye model=2 kv=0.219393102 kw = 0.0705715 pf=0.92 status=variable vmaxpu=1.5 vminpu=0.5 daily="RU8_SA"  
New "Load.BT_2817049_M2" bus1="UC2817049.3.4" phases=1 conn=Wye model=3 kv=0.219393102 kw = 0.0705715 pf=0.92 status=variable vmaxpu=1.5 vminpu=0.5 daily="RU8_SA" 
New "Load.BT_2805218_M1" bus1="UC2805218.1.2.4" phases=1 conn=Delta model=2 kv=0.440000000 kw = 0.2945215 pf=0.92 status=variable vmaxpu=1.5 vminpu=0.5 daily="RU3_SA"  
New "Load.BT_2805218_M2" bus1="UC2805218.1.2.4" phases=1 conn=Delta model=3 kv=0.440000000 kw = 0.2945215 pf=0.92 status=variable vmaxpu=1.5 vminpu=0.5 daily="RU3_SA" 
New "Load.BT_2826225_M1" bus1="UC2826225.1.2.3.4" phases=3 conn=Delta model=2 kv=0.380000000 kw = 0.079323 pf=0.92 status=variable vmaxpu=1.5 vminpu=0.5 daily="RU7_SA"  
New "Load.BT_2826225_M2" bus1="UC2826225.1.2.3.4" phases=3 conn=Delta model=3 kv=0.380000000 kw = 0.079323 pf=0.92 status=variable vmaxpu=1.5 vminpu=0.5 daily="RU7_SA" 
New "Load.BT_2817022_M1" bus1="UC2817022.2.4" phases=1 conn=Wye model=2 kv=0.219393102 kw = 0.339941 pf=0.92 status=variable vmaxpu=1.5 vminpu=0.5 daily="RE6_SA"  
New "Load.BT_2817022_M2" bus1="UC2817022.2.4" phases=1 conn=Wye model=3 kv=0.219393102 kw = 0.339941 pf=0.92 status=variable vmaxpu=1.5 vminpu=0.5 daily="RE6_SA" 
New "Load.BT_2832901_M1" bus1="UC2832901.1.4" phases=1 conn=Wye model=2 kv=0.220000000 kw = 0.0 pf=0.92 status=variable vmaxpu=1.5 vminpu=0.5 daily="CO6_SA"  
New "Load.BT_2832901_M2" bus1="UC2832901.1.4" phases=1 conn=Wye model=3 kv=0.220000000 kw = 0.0 pf=0.92 status=variable vmaxpu=1.5 vminpu=0.5 daily="CO6_SA" 
New "Load.BT_2838192_M1" bus1="UC2838192.1.4" phases=1 conn=Wye model=2 kv=0.219393102 kw = 0.141391 pf=0.92 status=variable vmaxpu=1.5 vminpu=0.5 daily="RE5_SA"  
New "Load.BT_2838192_M2" bus1="UC2838192.1.4" phases=1 conn=Wye model=3 kv=0.219393102 kw = 0.141391 pf=0.92 status=variable vmaxpu=1.5 vminpu=0.5 daily="RE5_SA" 
New "Load.BT_2806076_M1" bus1="UC2806076.2.4" phases=1 conn=Wye model=2 kv=0.220000000 kw = 0.6022585 pf=0.92 status=variable vmaxpu=1.5 vminpu=0.5 daily="RU3_SA"  
New "Load.BT_2806076_M2" bus1="UC2806076.2.4" phases=1 conn=Wye model=3 kv=0.220000000 kw = 0.6022585 pf=0.92 status=variable vmaxpu=1.5 vminpu=0.5 daily="RU3_SA" 
New "Load.BT_2805391_M1" bus1="UC2805391.1.4" phases=1 conn=Wye model=2 kv=0.220000000 kw = 0.0131315 pf=0.92 status=variable vmaxpu=1.5 vminpu=0.5 daily="RU1_SA"  
New "Load.BT_2805391_M2" bus1="UC2805391.1.4" phases=1 conn=Wye model=3 kv=0.220000000 kw = 0.0131315 pf=0.92 status=variable vmaxpu=1.5 vminpu=0.5 daily="RU1_SA" 
New "Load.BT_2805329_M1" bus1="UC2805329.1.4" phases=1 conn=Wye model=2 kv=0.220000000 kw = 0.4375355 pf=0.92 status=variable vmaxpu=1.5 vminpu=0.5 daily="RU6_SA"  
New "Load.BT_2805329_M2" bus1="UC2805329.1.4" phases=1 conn=Wye model=3 kv=0.220000000 kw = 0.4375355 pf=0.92 status=variable vmaxpu=1.5 vminpu=0.5 daily="RU6_SA" 
New "Load.BT_2834953_M1" bus1="UC2834953.3.4" phases=1 conn=Wye model=2 kv=0.219393102 kw = 0.0169075 pf=0.92 status=variable vmaxpu=1.5 vminpu=0.5 daily="RU1_SA"  
New "Load.BT_2834953_M2" bus1="UC2834953.3.4" phases=1 conn=Wye model=3 kv=0.219393102 kw = 0.0169075 pf=0.92 status=variable vmaxpu=1.5 vminpu=0.5 daily="RU1_SA" 
New "Load.BT_2831809_M1" bus1="UC2831809.1.2.3.4" phases=3 conn=Delta model=2 kv=0.380000000 kw = 1.183543 pf=0.92 status=variable vmaxpu=1.5 vminpu=0.5 daily="RU8_SA"  
New "Load.BT_2831809_M2" bus1="UC2831809.1.2.3.4" phases=3 conn=Delta model=3 kv=0.380000000 kw = 1.183543 pf=0.92 status=variable vmaxpu=1.5 vminpu=0.5 daily="RU8_SA" 
New "Load.BT_2805792_M1" bus1="UC2805792.1.4" phases=1 conn=Wye model=2 kv=0.219393102 kw = 0.0066385 pf=0.92 status=variable vmaxpu=1.5 vminpu=0.5 daily="RU2_SA"  
New "Load.BT_2805792_M2" bus1="UC2805792.1.4" phases=1 conn=Wye model=3 kv=0.219393102 kw = 0.0066385 pf=0.92 status=variable vmaxpu=1.5 vminpu=0.5 daily="RU2_SA" 
New "Load.BT_2805230_M1" bus1="UC2805230.2.4" phases=1 conn=Wye model=2 kv=0.220000000 kw = 0.0796645 pf=0.92 status=variable vmaxpu=1.5 vminpu=0.5 daily="RU2_SA"  
New "Load.BT_2805230_M2" bus1="UC2805230.2.4" phases=1 conn=Wye model=3 kv=0.220000000 kw = 0.0796645 pf=0.92 status=variable vmaxpu=1.5 vminpu=0.5 daily="RU2_SA" 
New "Load.BT_2821681_M1" bus1="UC2821681.1.4" phases=1 conn=Wye model=2 kv=0.219393102 kw = 0.2737535 pf=0.92 status=variable vmaxpu=1.5 vminpu=0.5 daily="RU3_SA"  
New "Load.BT_2821681_M2" bus1="UC2821681.1.4" phases=1 conn=Wye model=3 kv=0.219393102 kw = 0.2737535 pf=0.92 status=variable vmaxpu=1.5 vminpu=0.5 daily="RU3_SA" 
New "Load.BT_2818310_M1" bus1="UC2818310.1.4" phases=1 conn=Wye model=2 kv=0.220000000 kw = 0.410215 pf=0.92 status=variable vmaxpu=1.5 vminpu=0.5 daily="RU7_SA"  
New "Load.BT_2818310_M2" bus1="UC2818310.1.4" phases=1 conn=Wye model=3 kv=0.220000000 kw = 0.410215 pf=0.92 status=variable vmaxpu=1.5 vminpu=0.5 daily="RU7_SA" 
New "Load.BT_2837351_M1" bus1="UC2837351.1.2.3.4" phases=3 conn=Delta model=2 kv=0.380000000 kw = 0.633615 pf=0.92 status=variable vmaxpu=1.5 vminpu=0.5 daily="RU5_SA"  
New "Load.BT_2837351_M2" bus1="UC2837351.1.2.3.4" phases=3 conn=Delta model=3 kv=0.380000000 kw = 0.633615 pf=0.92 status=variable vmaxpu=1.5 vminpu=0.5 daily="RU5_SA" 
New "Load.BT_2828396_M1" bus1="UC2828396.1.4" phases=1 conn=Wye model=2 kv=0.220000000 kw = 0.0652155 pf=0.92 status=variable vmaxpu=1.5 vminpu=0.5 daily="RU2_SA"  
New "Load.BT_2828396_M2" bus1="UC2828396.1.4" phases=1 conn=Wye model=3 kv=0.220000000 kw = 0.0652155 pf=0.92 status=variable vmaxpu=1.5 vminpu=0.5 daily="RU2_SA" 
New "Load.BT_2825299_M1" bus1="UC2825299.1.4" phases=1 conn=Wye model=2 kv=0.220000000 kw = 0.571923 pf=0.92 status=variable vmaxpu=1.5 vminpu=0.5 daily="RU8_SA"  
New "Load.BT_2825299_M2" bus1="UC2825299.1.4" phases=1 conn=Wye model=3 kv=0.220000000 kw = 0.571923 pf=0.92 status=variable vmaxpu=1.5 vminpu=0.5 daily="RU8_SA" 
New "Load.BT_2819372_M1" bus1="UC2819372.2.4" phases=1 conn=Wye model=2 kv=0.220000000 kw = 0.5616315 pf=0.92 status=variable vmaxpu=1.5 vminpu=0.5 daily="RU8_SA"  
New "Load.BT_2819372_M2" bus1="UC2819372.2.4" phases=1 conn=Wye model=3 kv=0.220000000 kw = 0.5616315 pf=0.92 status=variable vmaxpu=1.5 vminpu=0.5 daily="RU8_SA" 
New "Load.BT_2820643_M1" bus1="UC2820643.2.4" phases=1 conn=Wye model=2 kv=0.220000000 kw = 0.199041 pf=0.92 status=variable vmaxpu=1.5 vminpu=0.5 daily="RU5_SA"  
New "Load.BT_2820643_M2" bus1="UC2820643.2.4" phases=1 conn=Wye model=3 kv=0.220000000 kw = 0.199041 pf=0.92 status=variable vmaxpu=1.5 vminpu=0.5 daily="RU5_SA" 
New "Load.BT_2805351_M1" bus1="UC2805351.1.4" phases=1 conn=Wye model=2 kv=0.220000000 kw = 0.8674415 pf=0.92 status=variable vmaxpu=1.5 vminpu=0.5 daily="RU8_SA"  
New "Load.BT_2805351_M2" bus1="UC2805351.1.4" phases=1 conn=Wye model=3 kv=0.220000000 kw = 0.8674415 pf=0.92 status=variable vmaxpu=1.5 vminpu=0.5 daily="RU8_SA" 
New "Load.BT_2818334_M1" bus1="UC2818334.1.2.3.4" phases=3 conn=Delta model=2 kv=0.380000000 kw = 0.6799145 pf=0.92 status=variable vmaxpu=1.5 vminpu=0.5 daily="RU7_SA"  
New "Load.BT_2818334_M2" bus1="UC2818334.1.2.3.4" phases=3 conn=Delta model=3 kv=0.380000000 kw = 0.6799145 pf=0.92 status=variable vmaxpu=1.5 vminpu=0.5 daily="RU7_SA" 
New "Load.BT_2819397_M1" bus1="UC2819397.1.4" phases=1 conn=Wye model=2 kv=0.219393102 kw = 0.1958615 pf=0.92 status=variable vmaxpu=1.5 vminpu=0.5 daily="RE5_SA"  
New "Load.BT_2819397_M2" bus1="UC2819397.1.4" phases=1 conn=Wye model=3 kv=0.219393102 kw = 0.1958615 pf=0.92 status=variable vmaxpu=1.5 vminpu=0.5 daily="RE5_SA" 
New "Load.BT_2818317_M1" bus1="UC2818317.1.2.4" phases=1 conn=Delta model=2 kv=0.440000000 kw = 0.4657635 pf=0.92 status=variable vmaxpu=1.5 vminpu=0.5 daily="RU6_SA"  
New "Load.BT_2818317_M2" bus1="UC2818317.1.2.4" phases=1 conn=Delta model=3 kv=0.440000000 kw = 0.4657635 pf=0.92 status=variable vmaxpu=1.5 vminpu=0.5 daily="RU6_SA" 
New "Load.BT_2836678_M1" bus1="UC2836678.2.4" phases=1 conn=Wye model=2 kv=0.220000000 kw = 0.268243 pf=0.92 status=variable vmaxpu=1.5 vminpu=0.5 daily="RU4_SA"  
New "Load.BT_2836678_M2" bus1="UC2836678.2.4" phases=1 conn=Wye model=3 kv=0.220000000 kw = 0.268243 pf=0.92 status=variable vmaxpu=1.5 vminpu=0.5 daily="RU4_SA" 
New "Load.BT_2805228_M1" bus1="UC2805228.1.4" phases=1 conn=Wye model=2 kv=0.220000000 kw = 0.16011 pf=0.92 status=variable vmaxpu=1.5 vminpu=0.5 daily="RU2_SA"  
New "Load.BT_2805228_M2" bus1="UC2805228.1.4" phases=1 conn=Wye model=3 kv=0.220000000 kw = 0.16011 pf=0.92 status=variable vmaxpu=1.5 vminpu=0.5 daily="RU2_SA" 
New "Load.BT_2805232_M1" bus1="UC2805232.1.2.3.4" phases=3 conn=Delta model=2 kv=0.380000000 kw = 1.748731 pf=0.92 status=variable vmaxpu=1.5 vminpu=0.5 daily="RU6_SA"  
New "Load.BT_2805232_M2" bus1="UC2805232.1.2.3.4" phases=3 conn=Delta model=3 kv=0.380000000 kw = 1.748731 pf=0.92 status=variable vmaxpu=1.5 vminpu=0.5 daily="RU6_SA" 
New "Load.BT_2838196_M1" bus1="UC2838196.1.4" phases=1 conn=Wye model=2 kv=0.219393102 kw = 0.093712 pf=0.92 status=variable vmaxpu=1.5 vminpu=0.5 daily="RE4_SA"  
New "Load.BT_2838196_M2" bus1="UC2838196.1.4" phases=1 conn=Wye model=3 kv=0.219393102 kw = 0.093712 pf=0.92 status=variable vmaxpu=1.5 vminpu=0.5 daily="RE4_SA" 
New "Load.BT_2805241_M1" bus1="UC2805241.1.4" phases=1 conn=Wye model=2 kv=0.219393102 kw = 0.4745835 pf=0.92 status=variable vmaxpu=1.5 vminpu=0.5 daily="RU4_SA"  
New "Load.BT_2805241_M2" bus1="UC2805241.1.4" phases=1 conn=Wye model=3 kv=0.219393102 kw = 0.4745835 pf=0.92 status=variable vmaxpu=1.5 vminpu=0.5 daily="RU4_SA" 
New "Load.BT_2818345_M1" bus1="UC2818345.1.4" phases=1 conn=Wye model=2 kv=0.220000000 kw = 0.0452665 pf=0.92 status=variable vmaxpu=1.5 vminpu=0.5 daily="RE1_SA"  
New "Load.BT_2818345_M2" bus1="UC2818345.1.4" phases=1 conn=Wye model=3 kv=0.220000000 kw = 0.0452665 pf=0.92 status=variable vmaxpu=1.5 vminpu=0.5 daily="RE1_SA" 
New "Load.BT_2836301_M1" bus1="UC2836301.1.2.4" phases=1 conn=Delta model=2 kv=0.380000000 kw = 0.4528335 pf=0.92 status=variable vmaxpu=1.5 vminpu=0.5 daily="RU8_SA"  
New "Load.BT_2836301_M2" bus1="UC2836301.1.2.4" phases=1 conn=Delta model=3 kv=0.380000000 kw = 0.4528335 pf=0.92 status=variable vmaxpu=1.5 vminpu=0.5 daily="RU8_SA" 
New "Load.BT_2805229_M1" bus1="UC2805229.2.4" phases=1 conn=Wye model=2 kv=0.220000000 kw = 0.1155915 pf=0.92 status=variable vmaxpu=1.5 vminpu=0.5 daily="RU2_SA"  
New "Load.BT_2805229_M2" bus1="UC2805229.2.4" phases=1 conn=Wye model=3 kv=0.220000000 kw = 0.1155915 pf=0.92 status=variable vmaxpu=1.5 vminpu=0.5 daily="RU2_SA" 
New "Load.BT_2805294_M1" bus1="UC2805294.1.2.4" phases=1 conn=Delta model=2 kv=0.440000000 kw = 0.109264 pf=0.92 status=variable vmaxpu=1.5 vminpu=0.5 daily="CO2_SA"  
New "Load.BT_2805294_M2" bus1="UC2805294.1.2.4" phases=1 conn=Delta model=3 kv=0.440000000 kw = 0.109264 pf=0.92 status=variable vmaxpu=1.5 vminpu=0.5 daily="CO2_SA" 
New "Load.BT_2805281_M1" bus1="UC2805281.1.2.4" phases=1 conn=Delta model=2 kv=0.440000000 kw = 0.3020405 pf=0.92 status=variable vmaxpu=1.5 vminpu=0.5 daily="RU6_SA"  
New "Load.BT_2805281_M2" bus1="UC2805281.1.2.4" phases=1 conn=Delta model=3 kv=0.440000000 kw = 0.3020405 pf=0.92 status=variable vmaxpu=1.5 vminpu=0.5 daily="RU6_SA" 
New "Load.BT_2837357_M1" bus1="UC2837357.1.4" phases=1 conn=Wye model=2 kv=0.220000000 kw = 0.0239935 pf=0.92 status=variable vmaxpu=1.5 vminpu=0.5 daily="RU6_SA"  
New "Load.BT_2837357_M2" bus1="UC2837357.1.4" phases=1 conn=Wye model=3 kv=0.220000000 kw = 0.0239935 pf=0.92 status=variable vmaxpu=1.5 vminpu=0.5 daily="RU6_SA" 
New "Load.BT_2805430_M1" bus1="UC2805430.2.4" phases=1 conn=Wye model=2 kv=0.220000000 kw = 0.262174 pf=0.92 status=variable vmaxpu=1.5 vminpu=0.5 daily="RU4_SA"  
New "Load.BT_2805430_M2" bus1="UC2805430.2.4" phases=1 conn=Wye model=3 kv=0.220000000 kw = 0.262174 pf=0.92 status=variable vmaxpu=1.5 vminpu=0.5 daily="RU4_SA" 
New "Load.BT_2825298_M1" bus1="UC2825298.2.4" phases=1 conn=Wye model=2 kv=0.220000000 kw = 0.1116665 pf=0.92 status=variable vmaxpu=1.5 vminpu=0.5 daily="RU4_SA"  
New "Load.BT_2825298_M2" bus1="UC2825298.2.4" phases=1 conn=Wye model=3 kv=0.220000000 kw = 0.1116665 pf=0.92 status=variable vmaxpu=1.5 vminpu=0.5 daily="RU4_SA" 
New "Load.BT_2825849_M1" bus1="UC2825849.1.4" phases=1 conn=Wye model=2 kv=0.219393102 kw = 0.170985 pf=0.92 status=variable vmaxpu=1.5 vminpu=0.5 daily="RE3_SA"  
New "Load.BT_2825849_M2" bus1="UC2825849.1.4" phases=1 conn=Wye model=3 kv=0.219393102 kw = 0.170985 pf=0.92 status=variable vmaxpu=1.5 vminpu=0.5 daily="RE3_SA" 
New "Load.BT_2821694_M1" bus1="UC2821694.1.4" phases=1 conn=Wye model=2 kv=0.220000000 kw = 1.202517 pf=0.92 status=variable vmaxpu=1.5 vminpu=0.5 daily="RU6_SA"  
New "Load.BT_2821694_M2" bus1="UC2821694.1.4" phases=1 conn=Wye model=3 kv=0.220000000 kw = 1.202517 pf=0.92 status=variable vmaxpu=1.5 vminpu=0.5 daily="RU6_SA" 
New "Load.BT_2818331_M1" bus1="UC2818331.1.4" phases=1 conn=Wye model=2 kv=0.219393102 kw = 0.1821875 pf=0.92 status=variable vmaxpu=1.5 vminpu=0.5 daily="RU3_SA"  
New "Load.BT_2818331_M2" bus1="UC2818331.1.4" phases=1 conn=Wye model=3 kv=0.219393102 kw = 0.1821875 pf=0.92 status=variable vmaxpu=1.5 vminpu=0.5 daily="RU3_SA" 
New "Load.BT_2825862_M1" bus1="UC2825862.1.2.4" phases=1 conn=Delta model=2 kv=0.440000000 kw = 0.1359825 pf=0.92 status=variable vmaxpu=1.5 vminpu=0.5 daily="RU7_SA"  
New "Load.BT_2825862_M2" bus1="UC2825862.1.2.4" phases=1 conn=Delta model=3 kv=0.440000000 kw = 0.1359825 pf=0.92 status=variable vmaxpu=1.5 vminpu=0.5 daily="RU7_SA" 
New "Load.BT_2805207_M1" bus1="UC2805207.1.4" phases=1 conn=Wye model=2 kv=0.220000000 kw = 0.215227 pf=0.92 status=variable vmaxpu=1.5 vminpu=0.5 daily="RU3_SA"  
New "Load.BT_2805207_M2" bus1="UC2805207.1.4" phases=1 conn=Wye model=3 kv=0.220000000 kw = 0.215227 pf=0.92 status=variable vmaxpu=1.5 vminpu=0.5 daily="RU3_SA" 
New "Load.BT_2805369_M1" bus1="UC2805369.2.4" phases=1 conn=Wye model=2 kv=0.220000000 kw = 0.0866935 pf=0.92 status=variable vmaxpu=1.5 vminpu=0.5 daily="RU2_SA"  
New "Load.BT_2805369_M2" bus1="UC2805369.2.4" phases=1 conn=Wye model=3 kv=0.220000000 kw = 0.0866935 pf=0.92 status=variable vmaxpu=1.5 vminpu=0.5 daily="RU2_SA" 
New "Load.BT_2805306_M1" bus1="UC2805306.1.2.4" phases=1 conn=Delta model=2 kv=0.440000000 kw = 0.016682 pf=0.92 status=variable vmaxpu=1.5 vminpu=0.5 daily="RU1_SA"  
New "Load.BT_2805306_M2" bus1="UC2805306.1.2.4" phases=1 conn=Delta model=3 kv=0.440000000 kw = 0.016682 pf=0.92 status=variable vmaxpu=1.5 vminpu=0.5 daily="RU1_SA" 

New "Load.BT_2836487_M1" bus1="UC2836487.2.4" phases=1 conn=Wye model=2 kv=0.219393102 kw = 0.2781215 pf=0.92 status=variable vmaxpu=1.5 vminpu=0.5 daily="RE3_SA"  
New "Load.BT_2836487_M2" bus1="UC2836487.2.4" phases=1 conn=Wye model=3 kv=0.219393102 kw = 0.2781215 pf=0.92 status=variable vmaxpu=1.5 vminpu=0.5 daily="RE3_SA" 
New "Load.BT_2805295_M1" bus1="UC2805295.2.4" phases=1 conn=Wye model=2 kv=0.219393102 kw = 0.300185 pf=0.92 status=variable vmaxpu=1.5 vminpu=0.5 daily="RU3_SA"  
New "Load.BT_2805295_M2" bus1="UC2805295.2.4" phases=1 conn=Wye model=3 kv=0.219393102 kw = 0.300185 pf=0.92 status=variable vmaxpu=1.5 vminpu=0.5 daily="RU3_SA" 
New "Load.BT_2805260_M1" bus1="UC2805260.1.2.4" phases=1 conn=Delta model=2 kv=0.440000000 kw = 0.2182965 pf=0.92 status=variable vmaxpu=1.5 vminpu=0.5 daily="RU2_SA"  
New "Load.BT_2805260_M2" bus1="UC2805260.1.2.4" phases=1 conn=Delta model=3 kv=0.440000000 kw = 0.2182965 pf=0.92 status=variable vmaxpu=1.5 vminpu=0.5 daily="RU2_SA" 
New "Load.BT_2819368_M1" bus1="UC2819368.1.4" phases=1 conn=Wye model=2 kv=0.220000000 kw = 0.282286 pf=0.92 status=variable vmaxpu=1.5 vminpu=0.5 daily="RU8_SA"  
New "Load.BT_2819368_M2" bus1="UC2819368.1.4" phases=1 conn=Wye model=3 kv=0.220000000 kw = 0.282286 pf=0.92 status=variable vmaxpu=1.5 vminpu=0.5 daily="RU8_SA" 
New "Load.BT_2821699_M1" bus1="UC2821699.1.4" phases=1 conn=Wye model=2 kv=0.220000000 kw = 0.3646195 pf=0.92 status=variable vmaxpu=1.5 vminpu=0.5 daily="RU8_SA"  
New "Load.BT_2821699_M2" bus1="UC2821699.1.4" phases=1 conn=Wye model=3 kv=0.220000000 kw = 0.3646195 pf=0.92 status=variable vmaxpu=1.5 vminpu=0.5 daily="RU8_SA" 
New "Load.BT_2827095_M1" bus1="UC2827095.1.4" phases=1 conn=Wye model=2 kv=0.220000000 kw = 0.24135 pf=0.92 status=variable vmaxpu=1.5 vminpu=0.5 daily="RU6_SA"  
New "Load.BT_2827095_M2" bus1="UC2827095.1.4" phases=1 conn=Wye model=3 kv=0.220000000 kw = 0.24135 pf=0.92 status=variable vmaxpu=1.5 vminpu=0.5 daily="RU6_SA" 
New "Load.BT_2805296_M1" bus1="UC2805296.1.4" phases=1 conn=Wye model=2 kv=0.220000000 kw = 0.194203 pf=0.92 status=variable vmaxpu=1.5 vminpu=0.5 daily="RU4_SA"  
New "Load.BT_2805296_M2" bus1="UC2805296.1.4" phases=1 conn=Wye model=3 kv=0.220000000 kw = 0.194203 pf=0.92 status=variable vmaxpu=1.5 vminpu=0.5 daily="RU4_SA" 
New "Load.BT_2831489_M1" bus1="UC2831489.1.4" phases=1 conn=Wye model=2 kv=0.220000000 kw = 0.084684 pf=0.92 status=variable vmaxpu=1.5 vminpu=0.5 daily="RU6_SA"  
New "Load.BT_2831489_M2" bus1="UC2831489.1.4" phases=1 conn=Wye model=3 kv=0.220000000 kw = 0.084684 pf=0.92 status=variable vmaxpu=1.5 vminpu=0.5 daily="RU6_SA" 
New "Load.BT_2805333_M1" bus1="UC2805333.1.4" phases=1 conn=Wye model=2 kv=0.220000000 kw = 0.1077815 pf=0.92 status=variable vmaxpu=1.5 vminpu=0.5 daily="RU2_SA"  
New "Load.BT_2805333_M2" bus1="UC2805333.1.4" phases=1 conn=Wye model=3 kv=0.220000000 kw = 0.1077815 pf=0.92 status=variable vmaxpu=1.5 vminpu=0.5 daily="RU2_SA" 
New "Load.BT_2805215_M1" bus1="UC2805215.2.4" phases=1 conn=Wye model=2 kv=0.220000000 kw = 1.2659615 pf=0.92 status=variable vmaxpu=1.5 vminpu=0.5 daily="RU4_SA"  
New "Load.BT_2805215_M2" bus1="UC2805215.2.4" phases=1 conn=Wye model=3 kv=0.220000000 kw = 1.2659615 pf=0.92 status=variable vmaxpu=1.5 vminpu=0.5 daily="RU4_SA" 
New "Load.BT_2838202_M1" bus1="UC2838202.1.4" phases=1 conn=Wye model=2 kv=0.220000000 kw = 0.299448 pf=0.92 status=variable vmaxpu=1.5 vminpu=0.5 daily="RE4_SA"  
New "Load.BT_2838202_M2" bus1="UC2838202.1.4" phases=1 conn=Wye model=3 kv=0.220000000 kw = 0.299448 pf=0.92 status=variable vmaxpu=1.5 vminpu=0.5 daily="RE4_SA" 
New "Load.BT_2834960_M1" bus1="UC2834960.1.2.3.4" phases=3 conn=Delta model=2 kv=0.380000000 kw = 0.6369325 pf=0.92 status=variable vmaxpu=1.5 vminpu=0.5 daily="RU5_SA"  
New "Load.BT_2834960_M2" bus1="UC2834960.1.2.3.4" phases=3 conn=Delta model=3 kv=0.380000000 kw = 0.6369325 pf=0.92 status=variable vmaxpu=1.5 vminpu=0.5 daily="RU5_SA" 
New "Load.BT_2817019_M1" bus1="UC2817019.2.4" phases=1 conn=Wye model=2 kv=0.220000000 kw = 0.4806525 pf=0.92 status=variable vmaxpu=1.5 vminpu=0.5 daily="RU4_SA"  
New "Load.BT_2817019_M2" bus1="UC2817019.2.4" phases=1 conn=Wye model=3 kv=0.220000000 kw = 0.4806525 pf=0.92 status=variable vmaxpu=1.5 vminpu=0.5 daily="RU4_SA" 
New "Load.BT_2836306_M1" bus1="UC2836306.1.4" phases=1 conn=Wye model=2 kv=0.220000000 kw = 0.3173605 pf=0.92 status=variable vmaxpu=1.5 vminpu=0.5 daily="RU5_SA"  
New "Load.BT_2836306_M2" bus1="UC2836306.1.4" phases=1 conn=Wye model=3 kv=0.220000000 kw = 0.3173605 pf=0.92 status=variable vmaxpu=1.5 vminpu=0.5 daily="RU5_SA" 
New "Load.BT_2805205_M1" bus1="UC2805205.1.4" phases=1 conn=Wye model=2 kv=0.220000000 kw = 0.087865 pf=0.92 status=variable vmaxpu=1.5 vminpu=0.5 daily="RU2_SA"  
New "Load.BT_2805205_M2" bus1="UC2805205.1.4" phases=1 conn=Wye model=3 kv=0.220000000 kw = 0.087865 pf=0.92 status=variable vmaxpu=1.5 vminpu=0.5 daily="RU2_SA" 
New "Load.BT_2833916_M1" bus1="UC2833916.1.4" phases=1 conn=Wye model=2 kv=0.220000000 kw = 0.1159965 pf=0.92 status=variable vmaxpu=1.5 vminpu=0.5 daily="RE1_SA"  
New "Load.BT_2833916_M2" bus1="UC2833916.1.4" phases=1 conn=Wye model=3 kv=0.220000000 kw = 0.1159965 pf=0.92 status=variable vmaxpu=1.5 vminpu=0.5 daily="RE1_SA" 
New "Load.BT_2805208_M1" bus1="UC2805208.2.4" phases=1 conn=Wye model=2 kv=0.220000000 kw = 0.0765405 pf=0.92 status=variable vmaxpu=1.5 vminpu=0.5 daily="RU2_SA"  
New "Load.BT_2805208_M2" bus1="UC2805208.2.4" phases=1 conn=Wye model=3 kv=0.220000000 kw = 0.0765405 pf=0.92 status=variable vmaxpu=1.5 vminpu=0.5 daily="RU2_SA" 
New "Load.BT_2805360_M1" bus1="UC2805360.1.4" phases=1 conn=Wye model=2 kv=0.220000000 kw = 0.1669735 pf=0.92 status=variable vmaxpu=1.5 vminpu=0.5 daily="RU5_SA"  
New "Load.BT_2805360_M2" bus1="UC2805360.1.4" phases=1 conn=Wye model=3 kv=0.220000000 kw = 0.1669735 pf=0.92 status=variable vmaxpu=1.5 vminpu=0.5 daily="RU5_SA" 
New "Load.BT_2833914_M1" bus1="UC2833914.2.4" phases=1 conn=Wye model=2 kv=0.220000000 kw = 0.162645 pf=0.92 status=variable vmaxpu=1.5 vminpu=0.5 daily="RU4_SA"  
New "Load.BT_2833914_M2" bus1="UC2833914.2.4" phases=1 conn=Wye model=3 kv=0.220000000 kw = 0.162645 pf=0.92 status=variable vmaxpu=1.5 vminpu=0.5 daily="RU4_SA" 
New "Load.BT_2825865_M1" bus1="UC2825865.1.4" phases=1 conn=Wye model=2 kv=0.220000000 kw = 0.0072825 pf=0.92 status=variable vmaxpu=1.5 vminpu=0.5 daily="RU4_SA"  
New "Load.BT_2825865_M2" bus1="UC2825865.1.4" phases=1 conn=Wye model=3 kv=0.220000000 kw = 0.0072825 pf=0.92 status=variable vmaxpu=1.5 vminpu=0.5 daily="RU4_SA" 
New "Load.BT_2836304_M1" bus1="UC2836304.1.4" phases=1 conn=Wye model=2 kv=0.220000000 kw = 0.314631 pf=0.92 status=variable vmaxpu=1.5 vminpu=0.5 daily="RU8_SA"  
New "Load.BT_2836304_M2" bus1="UC2836304.1.4" phases=1 conn=Wye model=3 kv=0.220000000 kw = 0.314631 pf=0.92 status=variable vmaxpu=1.5 vminpu=0.5 daily="RU8_SA" 
New "Load.BT_2805265_M1" bus1="UC2805265.2.4" phases=1 conn=Wye model=2 kv=0.220000000 kw = 0.5292765 pf=0.92 status=variable vmaxpu=1.5 vminpu=0.5 daily="RU6_SA"  
New "Load.BT_2805265_M2" bus1="UC2805265.2.4" phases=1 conn=Wye model=3 kv=0.220000000 kw = 0.5292765 pf=0.92 status=variable vmaxpu=1.5 vminpu=0.5 daily="RU6_SA" 
New "Load.BT_2805282_M1" bus1="UC2805282.1.2.4" phases=1 conn=Delta model=2 kv=0.440000000 kw = 0.440358 pf=0.92 status=variable vmaxpu=1.5 vminpu=0.5 daily="RU6_SA"  
New "Load.BT_2805282_M2" bus1="UC2805282.1.2.4" phases=1 conn=Delta model=3 kv=0.440000000 kw = 0.440358 pf=0.92 status=variable vmaxpu=1.5 vminpu=0.5 daily="RU6_SA" 
New "Load.BT_2819347_M1" bus1="UC2819347.1.4" phases=1 conn=Wye model=2 kv=0.220000000 kw = 0.0051285 pf=0.92 status=variable vmaxpu=1.5 vminpu=0.5 daily="RU1_SA"  
New "Load.BT_2819347_M2" bus1="UC2819347.1.4" phases=1 conn=Wye model=3 kv=0.220000000 kw = 0.0051285 pf=0.92 status=variable vmaxpu=1.5 vminpu=0.5 daily="RU1_SA" 
New "Load.BT_2806091_M1" bus1="UC2806091.1.4" phases=1 conn=Wye model=2 kv=0.220000000 kw = 0.317293 pf=0.92 status=variable vmaxpu=1.5 vminpu=0.5 daily="RU7_SA"  
New "Load.BT_2806091_M2" bus1="UC2806091.1.4" phases=1 conn=Wye model=3 kv=0.220000000 kw = 0.317293 pf=0.92 status=variable vmaxpu=1.5 vminpu=0.5 daily="RU7_SA" 
New "Load.BT_2806074_M1" bus1="UC2806074.1.4" phases=1 conn=Wye model=2 kv=0.220000000 kw = 0.272401 pf=0.92 status=variable vmaxpu=1.5 vminpu=0.5 daily="RU6_SA"  
New "Load.BT_2806074_M2" bus1="UC2806074.1.4" phases=1 conn=Wye model=3 kv=0.220000000 kw = 0.272401 pf=0.92 status=variable vmaxpu=1.5 vminpu=0.5 daily="RU6_SA" 
New "Load.BT_2805304_M1" bus1="UC2805304.2.4" phases=1 conn=Wye model=2 kv=0.220000000 kw = 0.342283 pf=0.92 status=variable vmaxpu=1.5 vminpu=0.5 daily="RU4_SA"  
New "Load.BT_2805304_M2" bus1="UC2805304.2.4" phases=1 conn=Wye model=3 kv=0.220000000 kw = 0.342283 pf=0.92 status=variable vmaxpu=1.5 vminpu=0.5 daily="RU4_SA" 
New "Load.BT_2832709_M1" bus1="UC2832709.1.4" phases=1 conn=Wye model=2 kv=0.220000000 kw = 0.0033815 pf=0.92 status=variable vmaxpu=1.5 vminpu=0.5 daily="RU1_SA"  
New "Load.BT_2832709_M2" bus1="UC2832709.1.4" phases=1 conn=Wye model=3 kv=0.220000000 kw = 0.0033815 pf=0.92 status=variable vmaxpu=1.5 vminpu=0.5 daily="RU1_SA" 
New "Load.BT_2834135_M1" bus1="UC2834135.1.2.3.4" phases=3 conn=Delta model=2 kv=0.380000000 kw = 0.0 pf=0.92 status=variable vmaxpu=1.5 vminpu=0.5 daily="RU3_SA"  
New "Load.BT_2834135_M2" bus1="UC2834135.1.2.3.4" phases=3 conn=Delta model=3 kv=0.380000000 kw = 0.0 pf=0.92 status=variable vmaxpu=1.5 vminpu=0.5 daily="RU3_SA" 
New "Load.BT_2805429_M1" bus1="UC2805429.1.4" phases=1 conn=Wye model=2 kv=0.219393102 kw = 0.0089045 pf=0.92 status=variable vmaxpu=1.5 vminpu=0.5 daily="RU1_SA"  
New "Load.BT_2805429_M2" bus1="UC2805429.1.4" phases=1 conn=Wye model=3 kv=0.219393102 kw = 0.0089045 pf=0.92 status=variable vmaxpu=1.5 vminpu=0.5 daily="RU1_SA" 
New "Load.BT_2805386_M1" bus1="UC2805386.1.4" phases=1 conn=Wye model=2 kv=0.220000000 kw = 0.0490865 pf=0.92 status=variable vmaxpu=1.5 vminpu=0.5 daily="RU3_SA"  
New "Load.BT_2805386_M2" bus1="UC2805386.1.4" phases=1 conn=Wye model=3 kv=0.220000000 kw = 0.0490865 pf=0.92 status=variable vmaxpu=1.5 vminpu=0.5 daily="RU3_SA" 
New "Load.BT_2838208_M1" bus1="UC2838208.1.4" phases=1 conn=Wye model=2 kv=0.220000000 kw = 0.060529 pf=0.92 status=variable vmaxpu=1.5 vminpu=0.5 daily="RU2_SA"  
New "Load.BT_2838208_M2" bus1="UC2838208.1.4" phases=1 conn=Wye model=3 kv=0.220000000 kw = 0.060529 pf=0.92 status=variable vmaxpu=1.5 vminpu=0.5 daily="RU2_SA" 
New "Load.BT_2805326_M1" bus1="UC2805326.1.4" phases=1 conn=Wye model=2 kv=0.219393102 kw = 0.1378205 pf=0.92 status=variable vmaxpu=1.5 vminpu=0.5 daily="RU3_SA"  
New "Load.BT_2805326_M2" bus1="UC2805326.1.4" phases=1 conn=Wye model=3 kv=0.219393102 kw = 0.1378205 pf=0.92 status=variable vmaxpu=1.5 vminpu=0.5 daily="RU3_SA" 
New "Load.BT_2837166_M1" bus1="UC2837166.1.2.3.4" phases=3 conn=Delta model=2 kv=0.380000000 kw = 0.0001125 pf=0.92 status=variable vmaxpu=1.5 vminpu=0.5 daily="RU1_SA"  
New "Load.BT_2837166_M2" bus1="UC2837166.1.2.3.4" phases=3 conn=Delta model=3 kv=0.380000000 kw = 0.0001125 pf=0.92 status=variable vmaxpu=1.5 vminpu=0.5 daily="RU1_SA" 
New "Load.BT_2805365_M1" bus1="UC2805365.2.4" phases=1 conn=Wye model=2 kv=0.220000000 kw = 0.174636 pf=0.92 status=variable vmaxpu=1.5 vminpu=0.5 daily="RU3_SA"  
New "Load.BT_2805365_M2" bus1="UC2805365.2.4" phases=1 conn=Wye model=3 kv=0.220000000 kw = 0.174636 pf=0.92 status=variable vmaxpu=1.5 vminpu=0.5 daily="RU3_SA" 
New "Load.BT_2831802_M1" bus1="UC2831802.1.2.4" phases=1 conn=Delta model=2 kv=0.440000000 kw = 0.969635 pf=0.92 status=variable vmaxpu=1.5 vminpu=0.5 daily="RU6_SA"  
New "Load.BT_2831802_M2" bus1="UC2831802.1.2.4" phases=1 conn=Delta model=3 kv=0.440000000 kw = 0.969635 pf=0.92 status=variable vmaxpu=1.5 vminpu=0.5 daily="RU6_SA" 
New "Load.BT_2818330_M1" bus1="UC2818330.2.4" phases=1 conn=Wye model=2 kv=0.220000000 kw = 0.2488225 pf=0.92 status=variable vmaxpu=1.5 vminpu=0.5 daily="RU4_SA"  
New "Load.BT_2818330_M2" bus1="UC2818330.2.4" phases=1 conn=Wye model=3 kv=0.220000000 kw = 0.2488225 pf=0.92 status=variable vmaxpu=1.5 vminpu=0.5 daily="RU4_SA" 
New "Load.BT_2836308_M1" bus1="UC2836308.1.2.3.4" phases=3 conn=Delta model=2 kv=0.380000000 kw = 0.036295 pf=0.92 status=variable vmaxpu=1.5 vminpu=0.5 daily="RU1_SA"  
New "Load.BT_2836308_M2" bus1="UC2836308.1.2.3.4" phases=3 conn=Delta model=3 kv=0.380000000 kw = 0.036295 pf=0.92 status=variable vmaxpu=1.5 vminpu=0.5 daily="RU1_SA" 
New "Load.BT_2803522_M1" bus1="UC2803522.1.2.4" phases=1 conn=Delta model=2 kv=0.440000000 kw = 1.5468055 pf=0.92 status=variable vmaxpu=1.5 vminpu=0.5 daily="RU7_SA"  
New "Load.BT_2803522_M2" bus1="UC2803522.1.2.4" phases=1 conn=Delta model=3 kv=0.440000000 kw = 1.5468055 pf=0.92 status=variable vmaxpu=1.5 vminpu=0.5 daily="RU7_SA" 
New "Load.BT_2805257_M1" bus1="UC2805257.1.2.4" phases=1 conn=Delta model=2 kv=0.380000000 kw = 0.0022115 pf=0.92 status=variable vmaxpu=1.5 vminpu=0.5 daily="RU5_SA"  
New "Load.BT_2805257_M2" bus1="UC2805257.1.2.4" phases=1 conn=Delta model=3 kv=0.380000000 kw = 0.0022115 pf=0.92 status=variable vmaxpu=1.5 vminpu=0.5 daily="RU5_SA" 
New "Load.BT_2822262_M1" bus1="UC2822262.2.4" phases=1 conn=Wye model=2 kv=0.219393102 kw = 1.0054815 pf=0.92 status=variable vmaxpu=1.5 vminpu=0.5 daily="RE2_SA"  
New "Load.BT_2822262_M2" bus1="UC2822262.2.4" phases=1 conn=Wye model=3 kv=0.219393102 kw = 1.0054815 pf=0.92 status=variable vmaxpu=1.5 vminpu=0.5 daily="RE2_SA" 
New "Load.BT_2805246_M1" bus1="UC2805246.1.4" phases=1 conn=Wye model=2 kv=0.219393102 kw = 0.393782 pf=0.92 status=variable vmaxpu=1.5 vminpu=0.5 daily="RU6_SA"  
New "Load.BT_2805246_M2" bus1="UC2805246.1.4" phases=1 conn=Wye model=3 kv=0.219393102 kw = 0.393782 pf=0.92 status=variable vmaxpu=1.5 vminpu=0.5 daily="RU6_SA" 
New "Load.BT_2833912_M1" bus1="UC2833912.1.4" phases=1 conn=Wye model=2 kv=0.220000000 kw = 0.161431 pf=0.92 status=variable vmaxpu=1.5 vminpu=0.5 daily="RU4_SA"  
New "Load.BT_2833912_M2" bus1="UC2833912.1.4" phases=1 conn=Wye model=3 kv=0.220000000 kw = 0.161431 pf=0.92 status=variable vmaxpu=1.5 vminpu=0.5 daily="RU4_SA" 
New "Load.BT_2805428_M1" bus1="UC2805428.2.4" phases=1 conn=Wye model=2 kv=0.219393102 kw = 0.084958 pf=0.92 status=variable vmaxpu=1.5 vminpu=0.5 daily="RU3_SA"  
New "Load.BT_2805428_M2" bus1="UC2805428.2.4" phases=1 conn=Wye model=3 kv=0.219393102 kw = 0.084958 pf=0.92 status=variable vmaxpu=1.5 vminpu=0.5 daily="RU3_SA" 
New "Load.BT_2818332_M1" bus1="UC2818332.1.4" phases=1 conn=Wye model=2 kv=0.220000000 kw = 0.260965 pf=0.92 status=variable vmaxpu=1.5 vminpu=0.5 daily="RU5_SA"  
New "Load.BT_2818332_M2" bus1="UC2818332.1.4" phases=1 conn=Wye model=3 kv=0.220000000 kw = 0.260965 pf=0.92 status=variable vmaxpu=1.5 vminpu=0.5 daily="RU5_SA" 
New "Load.BT_2817034_M1" bus1="UC2817034.1.4" phases=1 conn=Wye model=2 kv=0.220000000 kw = 0.1749585 pf=0.92 status=variable vmaxpu=1.5 vminpu=0.5 daily="RU8_SA"  
New "Load.BT_2817034_M2" bus1="UC2817034.1.4" phases=1 conn=Wye model=3 kv=0.220000000 kw = 0.1749585 pf=0.92 status=variable vmaxpu=1.5 vminpu=0.5 daily="RU8_SA" 
New "Load.BT_2805274_M1" bus1="UC2805274.2.4" phases=1 conn=Wye model=2 kv=0.220000000 kw = 0.2764985 pf=0.92 status=variable vmaxpu=1.5 vminpu=0.5 daily="RU7_SA"  
New "Load.BT_2805274_M2" bus1="UC2805274.2.4" phases=1 conn=Wye model=3 kv=0.220000000 kw = 0.2764985 pf=0.92 status=variable vmaxpu=1.5 vminpu=0.5 daily="RU7_SA" 
New "Load.BT_2824960_M1" bus1="UC2824960.1.4" phases=1 conn=Wye model=2 kv=0.219393102 kw = 0.2814795 pf=0.92 status=variable vmaxpu=1.5 vminpu=0.5 daily="RE6_SA"  
New "Load.BT_2824960_M2" bus1="UC2824960.1.4" phases=1 conn=Wye model=3 kv=0.219393102 kw = 0.2814795 pf=0.92 status=variable vmaxpu=1.5 vminpu=0.5 daily="RE6_SA" 
New "Load.BT_2831486_M1" bus1="UC2831486.1.4" phases=1 conn=Wye model=2 kv=0.220000000 kw = 0.2753405 pf=0.92 status=variable vmaxpu=1.5 vminpu=0.5 daily="RU5_SA"  
New "Load.BT_2831486_M2" bus1="UC2831486.1.4" phases=1 conn=Wye model=3 kv=0.220000000 kw = 0.2753405 pf=0.92 status=variable vmaxpu=1.5 vminpu=0.5 daily="RU5_SA" 
New "Load.BT_2805288_M1" bus1="UC2805288.1.4" phases=1 conn=Wye model=2 kv=0.220000000 kw = 0.255464 pf=0.92 status=variable vmaxpu=1.5 vminpu=0.5 daily="RU6_SA"  
New "Load.BT_2805288_M2" bus1="UC2805288.1.4" phases=1 conn=Wye model=3 kv=0.220000000 kw = 0.255464 pf=0.92 status=variable vmaxpu=1.5 vminpu=0.5 daily="RU6_SA" 
New "Load.BT_2838210_M1" bus1="UC2838210.1.4" phases=1 conn=Wye model=2 kv=0.220000000 kw = 0.1994415 pf=0.92 status=variable vmaxpu=1.5 vminpu=0.5 daily="RU7_SA"  
New "Load.BT_2838210_M2" bus1="UC2838210.1.4" phases=1 conn=Wye model=3 kv=0.220000000 kw = 0.1994415 pf=0.92 status=variable vmaxpu=1.5 vminpu=0.5 daily="RU7_SA" 
New "Load.BT_2838209_M1" bus1="UC2838209.1.2.3.4" phases=3 conn=Delta model=2 kv=0.380000000 kw = 0.1699785 pf=0.92 status=variable vmaxpu=1.5 vminpu=0.5 daily="RU7_SA"  
New "Load.BT_2838209_M2" bus1="UC2838209.1.2.3.4" phases=3 conn=Delta model=3 kv=0.380000000 kw = 0.1699785 pf=0.92 status=variable vmaxpu=1.5 vminpu=0.5 daily="RU7_SA" 
New "Load.BT_2835368_M1" bus1="UC2835368.1.4" phases=1 conn=Wye model=2 kv=0.220000000 kw = 0.4931805 pf=0.92 status=variable vmaxpu=1.5 vminpu=0.5 daily="RU5_SA"  
New "Load.BT_2835368_M2" bus1="UC2835368.1.4" phases=1 conn=Wye model=3 kv=0.220000000 kw = 0.4931805 pf=0.92 status=variable vmaxpu=1.5 vminpu=0.5 daily="RU5_SA" 
New "Load.BT_2806095_M1" bus1="UC2806095.1.4" phases=1 conn=Wye model=2 kv=0.220000000 kw = 0.0015215 pf=0.92 status=variable vmaxpu=1.5 vminpu=0.5 daily="RU1_SA"  
New "Load.BT_2806095_M2" bus1="UC2806095.1.4" phases=1 conn=Wye model=3 kv=0.220000000 kw = 0.0015215 pf=0.92 status=variable vmaxpu=1.5 vminpu=0.5 daily="RU1_SA" 
New "Load.BT_2835361_M1" bus1="UC2835361.2.4" phases=1 conn=Wye model=2 kv=0.219393102 kw = 0.2310495 pf=0.92 status=variable vmaxpu=1.5 vminpu=0.5 daily="RE1_SA"  
New "Load.BT_2835361_M2" bus1="UC2835361.2.4" phases=1 conn=Wye model=3 kv=0.219393102 kw = 0.2310495 pf=0.92 status=variable vmaxpu=1.5 vminpu=0.5 daily="RE1_SA" 
New "Load.BT_2831807_M1" bus1="UC2831807.1.4" phases=1 conn=Wye model=2 kv=0.220000000 kw = 0.243636 pf=0.92 status=variable vmaxpu=1.5 vminpu=0.5 daily="RU7_SA"  
New "Load.BT_2831807_M2" bus1="UC2831807.1.4" phases=1 conn=Wye model=3 kv=0.220000000 kw = 0.243636 pf=0.92 status=variable vmaxpu=1.5 vminpu=0.5 daily="RU7_SA" 
New "Load.BT_2821687_M1" bus1="UC2821687.1.4" phases=1 conn=Wye model=2 kv=0.220000000 kw = 0.0035505 pf=0.92 status=variable vmaxpu=1.5 vminpu=0.5 daily="RU1_SA"  
New "Load.BT_2821687_M2" bus1="UC2821687.1.4" phases=1 conn=Wye model=3 kv=0.220000000 kw = 0.0035505 pf=0.92 status=variable vmaxpu=1.5 vminpu=0.5 daily="RU1_SA" 
New "Load.BT_2826239_M1" bus1="UC2826239.1.4" phases=1 conn=Wye model=2 kv=0.220000000 kw = 0.3793215 pf=0.92 status=variable vmaxpu=1.5 vminpu=0.5 daily="RU8_SA"  
New "Load.BT_2826239_M2" bus1="UC2826239.1.4" phases=1 conn=Wye model=3 kv=0.220000000 kw = 0.3793215 pf=0.92 status=variable vmaxpu=1.5 vminpu=0.5 daily="RU8_SA" 
New "Load.BT_2819358_M1" bus1="UC2819358.1.4" phases=1 conn=Wye model=2 kv=0.220000000 kw = 0.025405 pf=0.92 status=variable vmaxpu=1.5 vminpu=0.5 daily="RU6_SA"  
New "Load.BT_2819358_M2" bus1="UC2819358.1.4" phases=1 conn=Wye model=3 kv=0.220000000 kw = 0.025405 pf=0.92 status=variable vmaxpu=1.5 vminpu=0.5 daily="RU6_SA" 
New "Load.BT_2821691_M1" bus1="UC2821691.3.4" phases=1 conn=Wye model=2 kv=0.219393102 kw = 0.233752 pf=0.92 status=variable vmaxpu=1.5 vminpu=0.5 daily="RE3_SA"  
New "Load.BT_2821691_M2" bus1="UC2821691.3.4" phases=1 conn=Wye model=3 kv=0.219393102 kw = 0.233752 pf=0.92 status=variable vmaxpu=1.5 vminpu=0.5 daily="RE3_SA" 
New "Load.BT_2828384_M1" bus1="UC2828384.1.2.3.4" phases=3 conn=Delta model=2 kv=0.380000000 kw = 0.00781 pf=0.92 status=variable vmaxpu=1.5 vminpu=0.5 daily="RU2_SA"  
New "Load.BT_2828384_M2" bus1="UC2828384.1.2.3.4" phases=3 conn=Delta model=3 kv=0.380000000 kw = 0.00781 pf=0.92 status=variable vmaxpu=1.5 vminpu=0.5 daily="RU2_SA" 
New "Load.BT_2836675_M1" bus1="UC2836675.1.2.3.4" phases=3 conn=Delta model=2 kv=0.380000000 kw = 0.2427745 pf=0.92 status=variable vmaxpu=1.5 vminpu=0.5 daily="IN4_SA"  
New "Load.BT_2836675_M2" bus1="UC2836675.1.2.3.4" phases=3 conn=Delta model=3 kv=0.380000000 kw = 0.2427745 pf=0.92 status=variable vmaxpu=1.5 vminpu=0.5 daily="IN4_SA" 
New "Load.BT_2805354_M1" bus1="UC2805354.2.4" phases=1 conn=Wye model=2 kv=0.219393102 kw = 0.2921605 pf=0.92 status=variable vmaxpu=1.5 vminpu=0.5 daily="RU6_SA"  
New "Load.BT_2805354_M2" bus1="UC2805354.2.4" phases=1 conn=Wye model=3 kv=0.219393102 kw = 0.2921605 pf=0.92 status=variable vmaxpu=1.5 vminpu=0.5 daily="RU6_SA" 
New "Load.BT_2805349_M1" bus1="UC2805349.2.4" phases=1 conn=Wye model=2 kv=0.220000000 kw = 0.1303165 pf=0.92 status=variable vmaxpu=1.5 vminpu=0.5 daily="RU7_SA"  
New "Load.BT_2805349_M2" bus1="UC2805349.2.4" phases=1 conn=Wye model=3 kv=0.220000000 kw = 0.1303165 pf=0.92 status=variable vmaxpu=1.5 vminpu=0.5 daily="RU7_SA" 
New "Load.BT_2805289_M1" bus1="UC2805289.1.4" phases=1 conn=Wye model=2 kv=0.220000000 kw = 0.00975 pf=0.92 status=variable vmaxpu=1.5 vminpu=0.5 daily="RU1_SA"  
New "Load.BT_2805289_M2" bus1="UC2805289.1.4" phases=1 conn=Wye model=3 kv=0.220000000 kw = 0.00975 pf=0.92 status=variable vmaxpu=1.5 vminpu=0.5 daily="RU1_SA" 
New "Load.BT_2817015_M1" bus1="UC2817015.1.4" phases=1 conn=Wye model=2 kv=0.220000000 kw = 0.0169365 pf=0.92 status=variable vmaxpu=1.5 vminpu=0.5 daily="RU6_SA"  
New "Load.BT_2817015_M2" bus1="UC2817015.1.4" phases=1 conn=Wye model=3 kv=0.220000000 kw = 0.0169365 pf=0.92 status=variable vmaxpu=1.5 vminpu=0.5 daily="RU6_SA" 
New "Load.BT_2807370_M1" bus1="UC2807370.1.2.4" phases=1 conn=Delta model=2 kv=0.440000000 kw = 0.18471 pf=0.92 status=variable vmaxpu=1.5 vminpu=0.5 daily="RU7_SA"  
New "Load.BT_2807370_M2" bus1="UC2807370.1.2.4" phases=1 conn=Delta model=3 kv=0.440000000 kw = 0.18471 pf=0.92 status=variable vmaxpu=1.5 vminpu=0.5 daily="RU7_SA" 
New "Load.BT_2836080_M1" bus1="UC2836080.1.2.3.4" phases=3 conn=Delta model=2 kv=0.380000000 kw = 0.5653265 pf=0.92 status=variable vmaxpu=1.5 vminpu=0.5 daily="CO7_SA"  
New "Load.BT_2836080_M2" bus1="UC2836080.1.2.3.4" phases=3 conn=Delta model=3 kv=0.380000000 kw = 0.5653265 pf=0.92 status=variable vmaxpu=1.5 vminpu=0.5 daily="CO7_SA" 
New "Load.BT_2806068_M1" bus1="UC2806068.2.4" phases=1 conn=Wye model=2 kv=0.220000000 kw = 0.131213 pf=0.92 status=variable vmaxpu=1.5 vminpu=0.5 daily="RU3_SA"  
New "Load.BT_2806068_M2" bus1="UC2806068.2.4" phases=1 conn=Wye model=3 kv=0.220000000 kw = 0.131213 pf=0.92 status=variable vmaxpu=1.5 vminpu=0.5 daily="RU3_SA" 
New "Load.BT_2805425_M1" bus1="UC2805425.2.4" phases=1 conn=Wye model=2 kv=0.219393102 kw = 0.2277915 pf=0.92 status=variable vmaxpu=1.5 vminpu=0.5 daily="RU5_SA"  
New "Load.BT_2805425_M2" bus1="UC2805425.2.4" phases=1 conn=Wye model=3 kv=0.219393102 kw = 0.2277915 pf=0.92 status=variable vmaxpu=1.5 vminpu=0.5 daily="RU5_SA" 
New "Load.BT_2805290_M1" bus1="UC2805290.1.4" phases=1 conn=Wye model=2 kv=0.220000000 kw = 0.488405 pf=0.92 status=variable vmaxpu=1.5 vminpu=0.5 daily="RU7_SA"  
New "Load.BT_2805290_M2" bus1="UC2805290.1.4" phases=1 conn=Wye model=3 kv=0.220000000 kw = 0.488405 pf=0.92 status=variable vmaxpu=1.5 vminpu=0.5 daily="RU7_SA" 
New "Load.BT_2805366_M1" bus1="UC2805366.2.4" phases=1 conn=Wye model=2 kv=0.220000000 kw = 0.320512 pf=0.92 status=variable vmaxpu=1.5 vminpu=0.5 daily="RU8_SA"  
New "Load.BT_2805366_M2" bus1="UC2805366.2.4" phases=1 conn=Wye model=3 kv=0.220000000 kw = 0.320512 pf=0.92 status=variable vmaxpu=1.5 vminpu=0.5 daily="RU8_SA" 
New "Load.BT_2836489_M1" bus1="UC2836489.2.4" phases=1 conn=Wye model=2 kv=0.220000000 kw = 0.024065 pf=0.92 status=variable vmaxpu=1.5 vminpu=0.5 daily="RU1_SA"  
New "Load.BT_2836489_M2" bus1="UC2836489.2.4" phases=1 conn=Wye model=3 kv=0.220000000 kw = 0.024065 pf=0.92 status=variable vmaxpu=1.5 vminpu=0.5 daily="RU1_SA" 
New "Load.BT_2807371_M1" bus1="UC2807371.1.4" phases=1 conn=Wye model=2 kv=0.220000000 kw = 0.1896605 pf=0.92 status=variable vmaxpu=1.5 vminpu=0.5 daily="RU8_SA"  
New "Load.BT_2807371_M2" bus1="UC2807371.1.4" phases=1 conn=Wye model=3 kv=0.220000000 kw = 0.1896605 pf=0.92 status=variable vmaxpu=1.5 vminpu=0.5 daily="RU8_SA" 
New "Load.BT_3205285_M1" bus1="UC3205285.1.4" phases=1 conn=Wye model=2 kv=0.220000000 kw = 0.404967 pf=0.92 status=variable vmaxpu=1.5 vminpu=0.5 daily="RU3_SA"  
New "Load.BT_3205285_M2" bus1="UC3205285.1.4" phases=1 conn=Wye model=3 kv=0.220000000 kw = 0.404967 pf=0.92 status=variable vmaxpu=1.5 vminpu=0.5 daily="RU3_SA" 
New "Load.BT_2821026_M1" bus1="UC2821026.1.4" phases=1 conn=Wye model=2 kv=0.219393102 kw = 0.004452 pf=0.92 status=variable vmaxpu=1.5 vminpu=0.5 daily="RU1_SA"  
New "Load.BT_2821026_M2" bus1="UC2821026.1.4" phases=1 conn=Wye model=3 kv=0.219393102 kw = 0.004452 pf=0.92 status=variable vmaxpu=1.5 vminpu=0.5 daily="RU1_SA" 
New "Load.BT_2825582_M1" bus1="UC2825582.2.4" phases=1 conn=Wye model=2 kv=0.220000000 kw = 0.264643 pf=0.92 status=variable vmaxpu=1.5 vminpu=0.5 daily="RU8_SA"  
New "Load.BT_2825582_M2" bus1="UC2825582.2.4" phases=1 conn=Wye model=3 kv=0.220000000 kw = 0.264643 pf=0.92 status=variable vmaxpu=1.5 vminpu=0.5 daily="RU8_SA" 
New "Load.BT_2833915_M1" bus1="UC2833915.1.2.3.4" phases=3 conn=Delta model=2 kv=0.380000000 kw = 2.2582885 pf=0.92 status=variable vmaxpu=1.5 vminpu=0.5 daily="RU8_SA"  
New "Load.BT_2833915_M2" bus1="UC2833915.1.2.3.4" phases=3 conn=Delta model=3 kv=0.380000000 kw = 2.2582885 pf=0.92 status=variable vmaxpu=1.5 vminpu=0.5 daily="RU8_SA" 
New "Load.BT_2834959_M1" bus1="UC2834959.1.4" phases=1 conn=Wye model=2 kv=0.220000000 kw = 0.006799 pf=0.92 status=variable vmaxpu=1.5 vminpu=0.5 daily="RU7_SA"  
New "Load.BT_2834959_M2" bus1="UC2834959.1.4" phases=1 conn=Wye model=3 kv=0.220000000 kw = 0.006799 pf=0.92 status=variable vmaxpu=1.5 vminpu=0.5 daily="RU7_SA" 
New "Load.BT_2819343_M1" bus1="UC2819343.1.4" phases=1 conn=Wye model=2 kv=0.220000000 kw = 0.0378795 pf=0.92 status=variable vmaxpu=1.5 vminpu=0.5 daily="RU2_SA"  
New "Load.BT_2819343_M2" bus1="UC2819343.1.4" phases=1 conn=Wye model=3 kv=0.220000000 kw = 0.0378795 pf=0.92 status=variable vmaxpu=1.5 vminpu=0.5 daily="RU2_SA" 
New "Load.BT_2805231_M1" bus1="UC2805231.2.4" phases=1 conn=Wye model=2 kv=0.220000000 kw = 0.354957 pf=0.92 status=variable vmaxpu=1.5 vminpu=0.5 daily="RU5_SA"  
New "Load.BT_2805231_M2" bus1="UC2805231.2.4" phases=1 conn=Wye model=3 kv=0.220000000 kw = 0.354957 pf=0.92 status=variable vmaxpu=1.5 vminpu=0.5 daily="RU5_SA" 
New "Load.BT_2823647_M1" bus1="UC2823647.1.4" phases=1 conn=Wye model=2 kv=0.220000000 kw = 0.035385 pf=0.92 status=variable vmaxpu=1.5 vminpu=0.5 daily="RU5_SA"  
New "Load.BT_2823647_M2" bus1="UC2823647.1.4" phases=1 conn=Wye model=3 kv=0.220000000 kw = 0.035385 pf=0.92 status=variable vmaxpu=1.5 vminpu=0.5 daily="RU5_SA" 
New "Load.BT_2826236_M1" bus1="UC2826236.1.4" phases=1 conn=Wye model=2 kv=0.220000000 kw = 0.0167385 pf=0.92 status=variable vmaxpu=1.5 vminpu=0.5 daily="RU1_SA"  
New "Load.BT_2826236_M2" bus1="UC2826236.1.4" phases=1 conn=Wye model=3 kv=0.220000000 kw = 0.0167385 pf=0.92 status=variable vmaxpu=1.5 vminpu=0.5 daily="RU1_SA" 
New "Load.BT_2836791_M1" bus1="UC2836791.1.2.3.4" phases=3 conn=Delta model=2 kv=0.380000000 kw = 0.279458 pf=0.92 status=variable vmaxpu=1.5 vminpu=0.5 daily="RU6_SA"  
New "Load.BT_2836791_M2" bus1="UC2836791.1.2.3.4" phases=3 conn=Delta model=3 kv=0.380000000 kw = 0.279458 pf=0.92 status=variable vmaxpu=1.5 vminpu=0.5 daily="RU6_SA" 
New "Load.BT_2805441_M1" bus1="UC2805441.1.4" phases=1 conn=Wye model=2 kv=0.220000000 kw = 0.283081 pf=0.92 status=variable vmaxpu=1.5 vminpu=0.5 daily="RU5_SA"  
New "Load.BT_2805441_M2" bus1="UC2805441.1.4" phases=1 conn=Wye model=3 kv=0.220000000 kw = 0.283081 pf=0.92 status=variable vmaxpu=1.5 vminpu=0.5 daily="RU5_SA" 
New "Load.BT_2805240_M1" bus1="UC2805240.1.2.4" phases=1 conn=Delta model=2 kv=0.380000000 kw = 1.490146 pf=0.92 status=variable vmaxpu=1.5 vminpu=0.5 daily="RU7_SA"  
New "Load.BT_2805240_M2" bus1="UC2805240.1.2.4" phases=1 conn=Delta model=3 kv=0.380000000 kw = 1.490146 pf=0.92 status=variable vmaxpu=1.5 vminpu=0.5 daily="RU7_SA" 
New "Load.BT_2838968_M1" bus1="UC2838968.1.4" phases=1 conn=Wye model=2 kv=0.220000000 kw = 0.0198235 pf=0.92 status=variable vmaxpu=1.5 vminpu=0.5 daily="RU3_SA"  
New "Load.BT_2838968_M2" bus1="UC2838968.1.4" phases=1 conn=Wye model=3 kv=0.220000000 kw = 0.0198235 pf=0.92 status=variable vmaxpu=1.5 vminpu=0.5 daily="RU3_SA" 
New "Load.BT_2832904_M1" bus1="UC2832904.2.4" phases=1 conn=Wye model=2 kv=0.220000000 kw = 0.536334 pf=0.92 status=variable vmaxpu=1.5 vminpu=0.5 daily="RU6_SA"  
New "Load.BT_2832904_M2" bus1="UC2832904.2.4" phases=1 conn=Wye model=3 kv=0.220000000 kw = 0.536334 pf=0.92 status=variable vmaxpu=1.5 vminpu=0.5 daily="RU6_SA" 

New "Load.BT_2805321_M1" bus1="UC2805321.1.4" phases=1 conn=Wye model=2 kv=0.220000000 kw = 0.203974 pf=0.92 status=variable vmaxpu=1.5 vminpu=0.5 daily="RU7_SA"  
New "Load.BT_2805321_M2" bus1="UC2805321.1.4" phases=1 conn=Wye model=3 kv=0.220000000 kw = 0.203974 pf=0.92 status=variable vmaxpu=1.5 vminpu=0.5 daily="RU7_SA" 
New "Load.BT_2805443_M1" bus1="UC2805443.1.4" phases=1 conn=Wye model=2 kv=0.220000000 kw = 0.2018305 pf=0.92 status=variable vmaxpu=1.5 vminpu=0.5 daily="RU6_SA"  
New "Load.BT_2805443_M2" bus1="UC2805443.1.4" phases=1 conn=Wye model=3 kv=0.220000000 kw = 0.2018305 pf=0.92 status=variable vmaxpu=1.5 vminpu=0.5 daily="RU6_SA" 
New "Load.BT_2805797_M1" bus1="UC2805797.2.4" phases=1 conn=Wye model=2 kv=0.220000000 kw = 0.098506 pf=0.92 status=variable vmaxpu=1.5 vminpu=0.5 daily="RU8_SA"  
New "Load.BT_2805797_M2" bus1="UC2805797.2.4" phases=1 conn=Wye model=3 kv=0.220000000 kw = 0.098506 pf=0.92 status=variable vmaxpu=1.5 vminpu=0.5 daily="RU8_SA" 
New "Load.BT_2830104_M1" bus1="UC2830104.1.4" phases=1 conn=Wye model=2 kv=0.220000000 kw = 0.0 pf=0.92 status=variable vmaxpu=1.5 vminpu=0.5 daily="RU5_SA"  
New "Load.BT_2830104_M2" bus1="UC2830104.1.4" phases=1 conn=Wye model=3 kv=0.220000000 kw = 0.0 pf=0.92 status=variable vmaxpu=1.5 vminpu=0.5 daily="RU5_SA" 
New "Load.BT_2805238_M1" bus1="UC2805238.1.4" phases=1 conn=Wye model=2 kv=0.220000000 kw = 0.2469955 pf=0.92 status=variable vmaxpu=1.5 vminpu=0.5 daily="RU6_SA"  
New "Load.BT_2805238_M2" bus1="UC2805238.1.4" phases=1 conn=Wye model=3 kv=0.220000000 kw = 0.2469955 pf=0.92 status=variable vmaxpu=1.5 vminpu=0.5 daily="RU6_SA" 
New "Load.BT_2836305_M1" bus1="UC2836305.3.4" phases=1 conn=Wye model=2 kv=0.219393102 kw = 0.4748875 pf=0.92 status=variable vmaxpu=1.5 vminpu=0.5 daily="RU8_SA"  
New "Load.BT_2836305_M2" bus1="UC2836305.3.4" phases=1 conn=Wye model=3 kv=0.219393102 kw = 0.4748875 pf=0.92 status=variable vmaxpu=1.5 vminpu=0.5 daily="RU8_SA" 
New "Load.BT_2805300_M1" bus1="UC2805300.1.2.3.4" phases=3 conn=Delta model=2 kv=0.380000000 kw = 0.885996 pf=0.92 status=variable vmaxpu=1.5 vminpu=0.5 daily="CO3_SA"  
New "Load.BT_2805300_M2" bus1="UC2805300.1.2.3.4" phases=3 conn=Delta model=3 kv=0.380000000 kw = 0.885996 pf=0.92 status=variable vmaxpu=1.5 vminpu=0.5 daily="CO3_SA" 
New "Load.BT_2832702_M1" bus1="UC2832702.2.4" phases=1 conn=Wye model=2 kv=0.219393102 kw = 0.1881095 pf=0.92 status=variable vmaxpu=1.5 vminpu=0.5 daily="RU7_SA"  
New "Load.BT_2832702_M2" bus1="UC2832702.2.4" phases=1 conn=Wye model=3 kv=0.219393102 kw = 0.1881095 pf=0.92 status=variable vmaxpu=1.5 vminpu=0.5 daily="RU7_SA" 
New "Load.BT_2821297_M1" bus1="UC2821297.2.4" phases=1 conn=Wye model=2 kv=0.220000000 kw = 0.5250425 pf=0.92 status=variable vmaxpu=1.5 vminpu=0.5 daily="RU6_SA"  
New "Load.BT_2821297_M2" bus1="UC2821297.2.4" phases=1 conn=Wye model=3 kv=0.220000000 kw = 0.5250425 pf=0.92 status=variable vmaxpu=1.5 vminpu=0.5 daily="RU6_SA" 
New "Load.BT_2833919_M1" bus1="UC2833919.1.2.3.4" phases=3 conn=Delta model=2 kv=0.380000000 kw = 0.268243 pf=0.92 status=variable vmaxpu=1.5 vminpu=0.5 daily="RU4_SA"  
New "Load.BT_2833919_M2" bus1="UC2833919.1.2.3.4" phases=3 conn=Delta model=3 kv=0.380000000 kw = 0.268243 pf=0.92 status=variable vmaxpu=1.5 vminpu=0.5 daily="RU4_SA" 
New "Load.BT_2805256_M1" bus1="UC2805256.1.2.4" phases=1 conn=Delta model=2 kv=0.380000000 kw = 0.765995 pf=0.92 status=variable vmaxpu=1.5 vminpu=0.5 daily="RU8_SA"  
New "Load.BT_2805256_M2" bus1="UC2805256.1.2.4" phases=1 conn=Delta model=3 kv=0.380000000 kw = 0.765995 pf=0.92 status=variable vmaxpu=1.5 vminpu=0.5 daily="RU8_SA" 
New "Load.BT_2821023_M1" bus1="UC2821023.1.4" phases=1 conn=Wye model=2 kv=0.220000000 kw = 0.008848 pf=0.92 status=variable vmaxpu=1.5 vminpu=0.5 daily="RU1_SA"  
New "Load.BT_2821023_M2" bus1="UC2821023.1.4" phases=1 conn=Wye model=3 kv=0.220000000 kw = 0.008848 pf=0.92 status=variable vmaxpu=1.5 vminpu=0.5 daily="RU1_SA" 
New "Load.BT_2805359_M1" bus1="UC2805359.1.4" phases=1 conn=Wye model=2 kv=0.220000000 kw = 0.356063 pf=0.92 status=variable vmaxpu=1.5 vminpu=0.5 daily="RU5_SA"  
New "Load.BT_2805359_M2" bus1="UC2805359.1.4" phases=1 conn=Wye model=3 kv=0.220000000 kw = 0.356063 pf=0.92 status=variable vmaxpu=1.5 vminpu=0.5 daily="RU5_SA" 
New "Load.BT_2831931_M1" bus1="UC2831931.1.4" phases=1 conn=Wye model=2 kv=0.220000000 kw = 0.399905 pf=0.92 status=variable vmaxpu=1.5 vminpu=0.5 daily="RU8_SA"  
New "Load.BT_2831931_M2" bus1="UC2831931.1.4" phases=1 conn=Wye model=3 kv=0.220000000 kw = 0.399905 pf=0.92 status=variable vmaxpu=1.5 vminpu=0.5 daily="RU8_SA" 
New "Load.BT_2805222_M1" bus1="UC2805222.1.4" phases=1 conn=Wye model=2 kv=0.220000000 kw = 0.006382 pf=0.92 status=variable vmaxpu=1.5 vminpu=0.5 daily="CO6_SA"  
New "Load.BT_2805222_M2" bus1="UC2805222.1.4" phases=1 conn=Wye model=3 kv=0.220000000 kw = 0.006382 pf=0.92 status=variable vmaxpu=1.5 vminpu=0.5 daily="CO6_SA" 
New "Load.BT_2817029_M1" bus1="UC2817029.2.4" phases=1 conn=Wye model=2 kv=0.219393102 kw = 0.494559 pf=0.92 status=variable vmaxpu=1.5 vminpu=0.5 daily="RE3_SA"  
New "Load.BT_2817029_M2" bus1="UC2817029.2.4" phases=1 conn=Wye model=3 kv=0.219393102 kw = 0.494559 pf=0.92 status=variable vmaxpu=1.5 vminpu=0.5 daily="RE3_SA" 
New "Load.BT_2831803_M1" bus1="UC2831803.2.4" phases=1 conn=Wye model=2 kv=0.220000000 kw = 0.0060685 pf=0.92 status=variable vmaxpu=1.5 vminpu=0.5 daily="RU4_SA"  
New "Load.BT_2831803_M2" bus1="UC2831803.2.4" phases=1 conn=Wye model=3 kv=0.220000000 kw = 0.0060685 pf=0.92 status=variable vmaxpu=1.5 vminpu=0.5 daily="RU4_SA" 
New "Load.BT_2833913_M1" bus1="UC2833913.1.2.4" phases=1 conn=Delta model=2 kv=0.440000000 kw = 0.001803 pf=0.92 status=variable vmaxpu=1.5 vminpu=0.5 daily="RU1_SA"  
New "Load.BT_2833913_M2" bus1="UC2833913.1.2.4" phases=1 conn=Delta model=3 kv=0.440000000 kw = 0.001803 pf=0.92 status=variable vmaxpu=1.5 vminpu=0.5 daily="RU1_SA" 
New "Load.BT_2837580_M1" bus1="UC2837580.1.4" phases=1 conn=Wye model=2 kv=0.220000000 kw = 0.1470695 pf=0.92 status=variable vmaxpu=1.5 vminpu=0.5 daily="RU5_SA"  
New "Load.BT_2837580_M2" bus1="UC2837580.1.4" phases=1 conn=Wye model=3 kv=0.220000000 kw = 0.1470695 pf=0.92 status=variable vmaxpu=1.5 vminpu=0.5 daily="RU5_SA" 
New "Load.BT_2806092_M1" bus1="UC2806092.2.4" phases=1 conn=Wye model=2 kv=0.220000000 kw = 0.4915765 pf=0.92 status=variable vmaxpu=1.5 vminpu=0.5 daily="RU4_SA"  
New "Load.BT_2806092_M2" bus1="UC2806092.2.4" phases=1 conn=Wye model=3 kv=0.220000000 kw = 0.4915765 pf=0.92 status=variable vmaxpu=1.5 vminpu=0.5 daily="RU4_SA" 
New "Load.BT_2817032_M1" bus1="UC2817032.1.4" phases=1 conn=Wye model=2 kv=0.220000000 kw = 0.036708 pf=0.92 status=variable vmaxpu=1.5 vminpu=0.5 daily="RU2_SA"  
New "Load.BT_2817032_M2" bus1="UC2817032.1.4" phases=1 conn=Wye model=3 kv=0.220000000 kw = 0.036708 pf=0.92 status=variable vmaxpu=1.5 vminpu=0.5 daily="RU2_SA" 

New "Load.BT_2833911_M1" bus1="UC2833911.1.4" phases=1 conn=Wye model=2 kv=0.219393102 kw = 0.0 pf=0.92 status=variable vmaxpu=1.5 vminpu=0.5 daily="CO2_SA"  
...